    3

 H   -2.4165936061    0.0000000000    0.0000000000
 H    0.0000000000    0.0000000000    0.0000000000
 H    0.8243346657    0.0000000000    0.0000000000
    3

 H   -2.0131348464    0.0000000000    0.0000000000
 H    0.0000000000    0.0000000000    0.0000000000
 H    0.8297340455    0.0000000000    0.0000000000
    3

 H   -1.6372800206    0.0000000000    0.0000000000
 H    0.0000000000    0.0000000000    0.0000000000
 H    0.8472607656    0.0000000000    0.0000000000
    3

 H   -1.3238851688    0.0000000000    0.0000000000
 H    0.0000000000    0.0000000000    0.0000000000
 H    0.9000945015    0.0000000000    0.0000000000
    3

 H   -1.0748823172    0.0000000000    0.0000000000
 H    0.0000000000    0.0000000000    0.0000000000
 H    1.0305089178    0.0000000000    0.0000000000
    3

 H   -0.8858875397    0.0000000000    0.0000000000
 H    0.0000000000    0.0000000000    0.0000000000
 H    1.3785193956    0.0000000000    0.0000000000
    3

 H   -0.8347866509    0.0000000000    0.0000000000
 H    0.0000000000    0.0000000000    0.0000000000
 H    1.8502339974    0.0000000000    0.0000000000
    3

 H   -0.8243346657    0.0000000000    0.0000000000
 H    0.0000000000    0.0000000000    0.0000000000
 H    2.4165936061    0.0000000000    0.0000000000
