    3

 H   -2.4165936061    0.0000000000    0.0000000000
 H    0.0000000000    0.0000000000    0.0000000000
 H    0.8243346657    0.0000000000    0.0000000000
    3

 H   -1.8714286233    0.0000000000    0.0000000000
 H    0.0000000000    0.0000000000    0.0000000000
 H    0.8349215369    0.0000000000    0.0000000000
    3

 H   -1.4065859742    0.0000000000    0.0000000000
 H    0.0000000000    0.0000000000    0.0000000000
 H    0.8818384013    0.0000000000    0.0000000000
    3

 H   -1.0524649767    0.0000000000    0.0000000000
 H    0.0000000000    0.0000000000    0.0000000000
 H    1.0524643124    0.0000000000    0.0000000000
    3

 H   -0.8818385490    0.0000000000    0.0000000000
 H    0.0000000000    0.0000000000    0.0000000000
 H    1.4065853106    0.0000000000    0.0000000000
    3

 H   -0.8349215547    0.0000000000    0.0000000000
 H    0.0000000000    0.0000000000    0.0000000000
 H    1.8714281947    0.0000000000    0.0000000000
    3

 H   -0.8243346657    0.0000000000    0.0000000000
 H    0.0000000000    0.0000000000    0.0000000000
 H    2.4165936061    0.0000000000    0.0000000000
