    3

 H   -2.4165936061    0.0000000000    0.0000000000
 H    0.0000000000    0.0000000000    0.0000000000
 H    0.8243346657    0.0000000000    0.0000000000
    3

 H   -1.8670829435    0.0000000000    0.0000000000
 H    0.0000000000    0.0000000000    0.0000000000
 H    0.8329087370    0.0000000000    0.0000000000
    3

 H   -1.3997281433    0.0000000000    0.0000000000
 H    0.0000000000    0.0000000000    0.0000000000
 H    0.8777025083    0.0000000000    0.0000000000
    3

 H   -1.0486941306    0.0000000000    0.0000000000
 H    0.0000000000    0.0000000000    0.0000000000
 H    1.0486819475    0.0000000000    0.0000000000
    3

 H   -0.8777167977    0.0000000000    0.0000000000
 H    0.0000000000    0.0000000000    0.0000000000
 H    1.3997116364    0.0000000000    0.0000000000
    3

 H   -0.8329076748    0.0000000000    0.0000000000
 H    0.0000000000    0.0000000000    0.0000000000
 H    1.8671080895    0.0000000000    0.0000000000
    3

 H   -0.8243346657    0.0000000000    0.0000000000
 H    0.0000000000    0.0000000000    0.0000000000
 H    2.4165936061    0.0000000000    0.0000000000
